                                   MODFLOW 6
                U.S. GEOLOGICAL SURVEY MODULAR HYDROLOGIC MODEL
                          GROUNDWATER FLOW MODEL (GWF)
                            VERSION 6.2.1 02/18/2021

  MODFLOW 6 compiled May  6 2021 00:38:39 with GFORTRAN compiler (ver. 10.2.0)

This software has been approved for release by the U.S. Geological 
Survey (USGS). Although the software has been subjected to rigorous 
review, the USGS reserves the right to update the software as needed 
pursuant to further analysis and review. No warranty, expressed or 
implied, is made by the USGS or the U.S. Government as to the 
functionality of the software and related material nor shall the 
fact of release constitute any such warranty. Furthermore, the 
software is released on condition that neither the USGS nor the U.S. 
Government shall be held liable for any damages resulting from its 
authorized or unauthorized use. Also refer to the USGS Water 
Resources Software User Rights Notice for complete use, copyright, 
and distribution information.


System command used to initiate simulation:
/Users/Theo/GRWMODELS/mflab/trunk/bin/mf6.mac

MODFLOW was compiled using uniform precision.

Real Variables
  KIND: 8
  TINY (smallest non-zero value):    2.225074-308
  HUGE (largest value):    1.797693+308
  PRECISION: 15
  BIT SIZE: 64

Integer Variables
  KIND: 4
  HUGE (largest value): 2147483647
  BIT SIZE: 32

Long Integer Variables
  KIND: 8
  HUGE (largest value): 9223372036854775807
  BIT SIZE: 64

Logical Variables
  KIND: 4
  BIT SIZE: 32


 OPENED /Users/Theo/GRWMODELS/python/tools/flopy_mf6/examples/test/test.disv
 FILE TYPE:DISV6                  UNIT 1005   STATUS:OLD                 
 FORMAT:FORMATTED              ACCESS:SEQUENTIAL          
 ACTION:READ                


 OPENED /Users/Theo/GRWMODELS/python/tools/flopy_mf6/examples/test/test.npf
 FILE TYPE:NPF6                   UNIT 1006   STATUS:OLD                 
 FORMAT:FORMATTED              ACCESS:SEQUENTIAL          
 ACTION:READ                


 OPENED /Users/Theo/GRWMODELS/python/tools/flopy_mf6/examples/test/test.sto
 FILE TYPE:STO6                   UNIT 1007   STATUS:OLD                 
 FORMAT:FORMATTED              ACCESS:SEQUENTIAL          
 ACTION:READ                


 OPENED /Users/Theo/GRWMODELS/python/tools/flopy_mf6/examples/test/test.ic
 FILE TYPE:IC6                    UNIT 1008   STATUS:OLD                 
 FORMAT:FORMATTED              ACCESS:SEQUENTIAL          
 ACTION:READ                


 OPENED /Users/Theo/GRWMODELS/python/tools/flopy_mf6/examples/test/test.chd
 FILE TYPE:CHD6                   UNIT 1009   STATUS:OLD                 
 FORMAT:FORMATTED              ACCESS:SEQUENTIAL          
 ACTION:READ                


 OPENED /Users/Theo/GRWMODELS/python/tools/flopy_mf6/examples/test/test.drn
 FILE TYPE:DRN6                   UNIT 1010   STATUS:OLD                 
 FORMAT:FORMATTED              ACCESS:SEQUENTIAL          
 ACTION:READ                


 OPENED /Users/Theo/GRWMODELS/python/tools/flopy_mf6/examples/test/test.wel
 FILE TYPE:WEL6                   UNIT 1011   STATUS:OLD                 
 FORMAT:FORMATTED              ACCESS:SEQUENTIAL          
 ACTION:READ                


 OPENED /Users/Theo/GRWMODELS/python/tools/flopy_mf6/examples/test/test.rcha
 FILE TYPE:RCH6                   UNIT 1012   STATUS:OLD                 
 FORMAT:FORMATTED              ACCESS:SEQUENTIAL          
 ACTION:READ                


 OPENED /Users/Theo/GRWMODELS/python/tools/flopy_mf6/examples/test/test.oc
 FILE TYPE:OC6                    UNIT 1013   STATUS:OLD                 
 FORMAT:FORMATTED              ACCESS:SEQUENTIAL          
 ACTION:READ                

 NAMEFILE OPTIONS:
    FLOWS WILL BE SAVED TO BUDGET FILE SPECIFIED IN OUTPUT CONTROL

 DISV -- VERTEX GRID DISCRETIZATION PACKAGE, VERSION 1 : 12/23/2015 - INPUT READ FROM UNIT 1005


 # File generated by Flopy version 3.3.5 on 04/15/2022 at 23:59:25.

 PROCESSING DISCRETIZATION OPTIONS
    MODEL LENGTH UNIT IS METERS
    XORIGIN SPECIFIED AS     0.00000000000000    
    YORIGIN SPECIFIED AS     0.00000000000000    
    ANGROT SPECIFIED AS     0.00000000000000    
 END OF DISCRETIZATION OPTIONS

 PROCESSING DISCRETIZATION DIMENSIONS
   NLAY = 5
   NCPL = 2500
   NVERT = 2601
 END OF DISCRETIZATION DIMENSIONS

 PROCESSING GRIDDATA

                  IDOMAIN = 1
 END PROCESSING GRIDDATA

 PROCESSING VERTICES
   SUCCESSFULLY READ 2601 (X,Y) COORDINATES
   MINIMUM X COORDINATE =    -100.000000000000    
   MAXIMUM X COORDINATE =     705.666685200000    
   MINIMUM Y COORDINATE =    -36.3655303900000    
   MAXIMUM Y COORDINATE =     549.939969560000    
 END PROCESSING VERTICES

 PROCESSING CELL2D
   SUCCESSFULLY READ 2500 CELL2D INFORMATION ENTRIES
   MINIMUM X CELL CENTER =    -87.8916910600000    
   MAXIMUM X CELL CENTER =     697.840017990000    
   MINIMUM Y CELL CENTER =    -31.9468952500000    
   MAXIMUM Y CELL CENTER =     544.365349880000    
   MAXIMUM NUMBER OF CELL2D VERTICES IS 4 FOR CELL 1
 END PROCESSING VERTICES

 NPF -- NODE PROPERTY FLOW PACKAGE, VERSION 1, 3/30/2015 INPUT READ FROM UNIT 1006


 # File generated by Flopy version 3.3.5 on 04/15/2022 at 23:59:26.
 PROCESSING NPF OPTIONS
    CELL-BY-CELL FLOW INFORMATION WILL BE SAVED TO BINARY FILE WHENEVER ICBCFL IS NOT ZERO.
    VERTICAL CONDUCTANCE VARIES WITH WATER TABLE.
    VERTICAL CONDUCTANCE ACCOUNTS FOR DEWATERED PORTION OF AN UNDERLYING CELL.
    VERTICAL FLOW WILL BE ADJUSTED FOR PERCHED CONDITIONS.
    SPECIFIC DISCHARGE WILL BE CALCULATED AT CELL CENTERS AND WRITTEN TO DATA-SPDIS IN BUDGET FILE WHEN REQUESTED.
    SATURATION WILL BE WRITTEN TO DATA-SAT IN BUDGET FILE WHEN REQUESTED.
 END OF NPF OPTIONS

 WEL   -- WEL PACKAGE, VERSION 8, 2/22/2014 INPUT READ FROM UNIT 1011
 # File generated by Flopy version 3.3.5 on 04/15/2022 at 23:59:26.

 PROCESSING WEL OPTIONS
    FLOWS WILL BE SAVED TO BUDGET FILE SPECIFIED IN OUTPUT CONTROL
 END OF WEL OPTIONS

 PROCESSING WEL DIMENSIONS
    MAXBOUND =       8
 END OF WEL DIMENSIONS

 DRN   -- DRN PACKAGE, VERSION 8, 2/22/2014 INPUT READ FROM UNIT 1010
 # File generated by Flopy version 3.3.5 on 04/15/2022 at 23:59:26.

 PROCESSING DRN OPTIONS
    FLOWS WILL BE SAVED TO BUDGET FILE SPECIFIED IN OUTPUT CONTROL
 END OF DRN OPTIONS

 PROCESSING DRN DIMENSIONS
    MAXBOUND =      96
 END OF DRN DIMENSIONS

 RCH   -- RCH PACKAGE, VERSION 8, 2/22/2014 INPUT READ FROM UNIT 1012
 # File generated by Flopy version 3.3.5 on 04/15/2022 at 23:59:26.

 PROCESSING RCH OPTIONS
    RECHARGE INPUT WILL BE READ AS ARRAY(S).
    FLOWS WILL BE SAVED TO BUDGET FILE SPECIFIED IN OUTPUT CONTROL
 END OF RCH OPTIONS

 CHD   -- CHD PACKAGE, VERSION 8, 2/22/2014 INPUT READ FROM UNIT 1009
 # File generated by Flopy version 3.3.5 on 04/15/2022 at 23:59:26.

 PROCESSING CHD OPTIONS
    FLOWS WILL BE SAVED TO BUDGET FILE SPECIFIED IN OUTPUT CONTROL
 END OF CHD OPTIONS

 PROCESSING CHD DIMENSIONS
    MAXBOUND =     100
 END OF CHD DIMENSIONS

 IC -- INITIAL CONDITIONS PACKAGE, VERSION 8, 3/28/2015 INPUT READ FROM UNIT 1008
 # File generated by Flopy version 3.3.5 on 04/15/2022 at 23:59:26.
 PROCESSING GRIDDATA

     INITIAL HEAD =   0.000000    
 END PROCESSING GRIDDATA
 PROCESSING GRIDDATA

                ICELLTYPE = 1
 K22 not provided.  Assuming K22 = K.
 END PROCESSING GRIDDATA

 STO -- STORAGE PACKAGE, VERSION 1, 5/19/2014 INPUT READ FROM UNIT 1007


 # File generated by Flopy version 3.3.5 on 04/15/2022 at 23:59:26.
 PROCESSING STORAGE OPTIONS
    CELL-BY-CELL FLOW INFORMATION WILL BE SAVED TO BINARY FILE WHENEVER ICBCFL IS NOT ZERO.
 END OF STORAGE OPTIONS
 PROCESSING GRIDDATA

                 ICONVERT = 0

         SPECIFIC STORAGE =  0.1000000E-04

           SPECIFIC YIELD =  0.1500000    
 END PROCESSING GRIDDATA
    BINARY GRID INFORMATION WILL BE WRITTEN TO:
      UNIT NUMBER: 1015
      FILE NAME: /Users/Theo/GRWMODELS/python/tools/flopy_mf6/examples/test/test.disv.grb

 OPENED /Users/Theo/GRWMODELS/python/tools/flopy_mf6/examples/test/test.disv.grb
 FILE TYPE:DATA(BINARY)   UNIT 1015   STATUS:REPLACE             
 FORMAT:UNFORMATTED            ACCESS:STREAM              
 ACTION:READWRITE           

      THE LAST TIME STEP WILL BE PRINTED
      THE LAST TIME STEP WILL BE PRINTED
 # File generated by Flopy version 3.3.5 on 04/15/2022 at 23:59:26.

 PROCESSING OC OPTIONS

    BUDGET INFORMATION WILL BE WRITTEN TO:
      UNIT NUMBER: 1016
      FILE NAME: test.cbc

 OPENED test.cbc
 FILE TYPE:DATA(BINARY)   UNIT 1016   STATUS:REPLACE             
 FORMAT:UNFORMATTED            ACCESS:STREAM              
 ACTION:READWRITE           

    HEAD INFORMATION WILL BE WRITTEN TO:
      UNIT NUMBER: 1017
      FILE NAME: test.hds

 OPENED test.hds
 FILE TYPE:DATA(BINARY)   UNIT 1017   STATUS:REPLACE             
 FORMAT:UNFORMATTED            ACCESS:STREAM              
 ACTION:READWRITE           

 END OF OC OPTIONS

start timestep kper="1" kstp="1" mode="normal"


 BEGIN READING OUTPUT CONTROL FOR STRESS PERIOD 1
      ALL TIME STEPS WILL BE SAVED
      ALL TIME STEPS WILL BE SAVED

 END READING OUTPUT CONTROL FOR STRESS PERIOD 1


 PROCESSING STORAGE PERIOD DATA
 END PROCESSING STORAGE PERIOD DATA


 STRESS PERIOD 1 IS STEADY-STATE


                 RECHARGE =  0.1000000E-02
 UBDSV1 SAVING           STO-SS ON UNIT   1016 AT TIME STEP      1, STRESS PERIOD      1
 UBDSV1 SAVING     FLOW-JA-FACE ON UNIT   1016 AT TIME STEP      1, STRESS PERIOD      1
 UBDSV06 SAVING       DATA-SPDIS IN MODEL TEST             PACKAGE NPF             CONNECTED TO MODEL TEST             PACKAGE NPF              ON UNIT   1016 AT TIME STEP      1, STRESS PERIOD      1
 UBDSV06 SAVING         DATA-SAT IN MODEL TEST             PACKAGE NPF             CONNECTED TO MODEL TEST             PACKAGE NPF              ON UNIT   1016 AT TIME STEP      1, STRESS PERIOD      1
 UBDSV06 SAVING              WEL IN MODEL TEST             PACKAGE TEST            CONNECTED TO MODEL TEST             PACKAGE WEL_0            ON UNIT   1016 AT TIME STEP      1, STRESS PERIOD      1
 UBDSV06 SAVING              DRN IN MODEL TEST             PACKAGE TEST            CONNECTED TO MODEL TEST             PACKAGE DRN_0            ON UNIT   1016 AT TIME STEP      1, STRESS PERIOD      1
 UBDSV06 SAVING              RCH IN MODEL TEST             PACKAGE TEST            CONNECTED TO MODEL TEST             PACKAGE RCHA_0           ON UNIT   1016 AT TIME STEP      1, STRESS PERIOD      1
 UBDSV06 SAVING              CHD IN MODEL TEST             PACKAGE TEST            CONNECTED TO MODEL TEST             PACKAGE CHD_0            ON UNIT   1016 AT TIME STEP      1, STRESS PERIOD      1

 HEAD WILL BE SAVED ON UNIT 1017 AT END OF TIME STEP    1, STRESS PERIOD    1

end timestep


start timestep kper="1" kstp="2" mode="normal"

 UBDSV1 SAVING           STO-SS ON UNIT   1016 AT TIME STEP      2, STRESS PERIOD      1
 UBDSV1 SAVING     FLOW-JA-FACE ON UNIT   1016 AT TIME STEP      2, STRESS PERIOD      1
 UBDSV06 SAVING       DATA-SPDIS IN MODEL TEST             PACKAGE NPF             CONNECTED TO MODEL TEST             PACKAGE NPF              ON UNIT   1016 AT TIME STEP      2, STRESS PERIOD      1
 UBDSV06 SAVING         DATA-SAT IN MODEL TEST             PACKAGE NPF             CONNECTED TO MODEL TEST             PACKAGE NPF              ON UNIT   1016 AT TIME STEP      2, STRESS PERIOD      1
 UBDSV06 SAVING              WEL IN MODEL TEST             PACKAGE TEST            CONNECTED TO MODEL TEST             PACKAGE WEL_0            ON UNIT   1016 AT TIME STEP      2, STRESS PERIOD      1
 UBDSV06 SAVING              DRN IN MODEL TEST             PACKAGE TEST            CONNECTED TO MODEL TEST             PACKAGE DRN_0            ON UNIT   1016 AT TIME STEP      2, STRESS PERIOD      1
 UBDSV06 SAVING              RCH IN MODEL TEST             PACKAGE TEST            CONNECTED TO MODEL TEST             PACKAGE RCHA_0           ON UNIT   1016 AT TIME STEP      2, STRESS PERIOD      1
 UBDSV06 SAVING              CHD IN MODEL TEST             PACKAGE TEST            CONNECTED TO MODEL TEST             PACKAGE CHD_0            ON UNIT   1016 AT TIME STEP      2, STRESS PERIOD      1

 HEAD WILL BE SAVED ON UNIT 1017 AT END OF TIME STEP    2, STRESS PERIOD    1

end timestep


start timestep kper="1" kstp="3" mode="normal"

 UBDSV1 SAVING           STO-SS ON UNIT   1016 AT TIME STEP      3, STRESS PERIOD      1
 UBDSV1 SAVING     FLOW-JA-FACE ON UNIT   1016 AT TIME STEP      3, STRESS PERIOD      1
 UBDSV06 SAVING       DATA-SPDIS IN MODEL TEST             PACKAGE NPF             CONNECTED TO MODEL TEST             PACKAGE NPF              ON UNIT   1016 AT TIME STEP      3, STRESS PERIOD      1
 UBDSV06 SAVING         DATA-SAT IN MODEL TEST             PACKAGE NPF             CONNECTED TO MODEL TEST             PACKAGE NPF              ON UNIT   1016 AT TIME STEP      3, STRESS PERIOD      1
 UBDSV06 SAVING              WEL IN MODEL TEST             PACKAGE TEST            CONNECTED TO MODEL TEST             PACKAGE WEL_0            ON UNIT   1016 AT TIME STEP      3, STRESS PERIOD      1
 UBDSV06 SAVING              DRN IN MODEL TEST             PACKAGE TEST            CONNECTED TO MODEL TEST             PACKAGE DRN_0            ON UNIT   1016 AT TIME STEP      3, STRESS PERIOD      1
 UBDSV06 SAVING              RCH IN MODEL TEST             PACKAGE TEST            CONNECTED TO MODEL TEST             PACKAGE RCHA_0           ON UNIT   1016 AT TIME STEP      3, STRESS PERIOD      1
 UBDSV06 SAVING              CHD IN MODEL TEST             PACKAGE TEST            CONNECTED TO MODEL TEST             PACKAGE CHD_0            ON UNIT   1016 AT TIME STEP      3, STRESS PERIOD      1

 HEAD WILL BE SAVED ON UNIT 1017 AT END OF TIME STEP    3, STRESS PERIOD    1

end timestep


start timestep kper="1" kstp="4" mode="normal"

 UBDSV1 SAVING           STO-SS ON UNIT   1016 AT TIME STEP      4, STRESS PERIOD      1
 UBDSV1 SAVING     FLOW-JA-FACE ON UNIT   1016 AT TIME STEP      4, STRESS PERIOD      1
 UBDSV06 SAVING       DATA-SPDIS IN MODEL TEST             PACKAGE NPF             CONNECTED TO MODEL TEST             PACKAGE NPF              ON UNIT   1016 AT TIME STEP      4, STRESS PERIOD      1
 UBDSV06 SAVING         DATA-SAT IN MODEL TEST             PACKAGE NPF             CONNECTED TO MODEL TEST             PACKAGE NPF              ON UNIT   1016 AT TIME STEP      4, STRESS PERIOD      1
 UBDSV06 SAVING              WEL IN MODEL TEST             PACKAGE TEST            CONNECTED TO MODEL TEST             PACKAGE WEL_0            ON UNIT   1016 AT TIME STEP      4, STRESS PERIOD      1
 UBDSV06 SAVING              DRN IN MODEL TEST             PACKAGE TEST            CONNECTED TO MODEL TEST             PACKAGE DRN_0            ON UNIT   1016 AT TIME STEP      4, STRESS PERIOD      1
 UBDSV06 SAVING              RCH IN MODEL TEST             PACKAGE TEST            CONNECTED TO MODEL TEST             PACKAGE RCHA_0           ON UNIT   1016 AT TIME STEP      4, STRESS PERIOD      1
 UBDSV06 SAVING              CHD IN MODEL TEST             PACKAGE TEST            CONNECTED TO MODEL TEST             PACKAGE CHD_0            ON UNIT   1016 AT TIME STEP      4, STRESS PERIOD      1

 HEAD WILL BE SAVED ON UNIT 1017 AT END OF TIME STEP    4, STRESS PERIOD    1

end timestep


start timestep kper="1" kstp="5" mode="normal"

 UBDSV1 SAVING           STO-SS ON UNIT   1016 AT TIME STEP      5, STRESS PERIOD      1
 UBDSV1 SAVING     FLOW-JA-FACE ON UNIT   1016 AT TIME STEP      5, STRESS PERIOD      1
 UBDSV06 SAVING       DATA-SPDIS IN MODEL TEST             PACKAGE NPF             CONNECTED TO MODEL TEST             PACKAGE NPF              ON UNIT   1016 AT TIME STEP      5, STRESS PERIOD      1
 UBDSV06 SAVING         DATA-SAT IN MODEL TEST             PACKAGE NPF             CONNECTED TO MODEL TEST             PACKAGE NPF              ON UNIT   1016 AT TIME STEP      5, STRESS PERIOD      1
 UBDSV06 SAVING              WEL IN MODEL TEST             PACKAGE TEST            CONNECTED TO MODEL TEST             PACKAGE WEL_0            ON UNIT   1016 AT TIME STEP      5, STRESS PERIOD      1
 UBDSV06 SAVING              DRN IN MODEL TEST             PACKAGE TEST            CONNECTED TO MODEL TEST             PACKAGE DRN_0            ON UNIT   1016 AT TIME STEP      5, STRESS PERIOD      1
 UBDSV06 SAVING              RCH IN MODEL TEST             PACKAGE TEST            CONNECTED TO MODEL TEST             PACKAGE RCHA_0           ON UNIT   1016 AT TIME STEP      5, STRESS PERIOD      1
 UBDSV06 SAVING              CHD IN MODEL TEST             PACKAGE TEST            CONNECTED TO MODEL TEST             PACKAGE CHD_0            ON UNIT   1016 AT TIME STEP      5, STRESS PERIOD      1

 HEAD WILL BE SAVED ON UNIT 1017 AT END OF TIME STEP    5, STRESS PERIOD    1


  VOLUME BUDGET FOR ENTIRE MODEL AT END OF TIME STEP    5, STRESS PERIOD   1
  ---------------------------------------------------------------------------------------------------

     CUMULATIVE VOLUME      L**3       RATES FOR THIS TIME STEP      L**3/T          PACKAGE NAME    
     ------------------                 ------------------------                     ----------------

           IN:                                      IN:
           ---                                      ---
              STO-SS =           0.0000                STO-SS =           0.0000     STORAGE         
                 WEL =           0.0000                   WEL =           0.0000     WEL_0           
                 DRN =           0.0000                   DRN =           0.0000     DRN_0           
                 RCH =       31190.4047                   RCH =         311.9040     RCHA_0          
                 CHD =         243.4743                   CHD =           2.4347     CHD_0           

            TOTAL IN =       31433.8791              TOTAL IN =         314.3388

          OUT:                                     OUT:
          ----                                     ----
              STO-SS =           0.0000                STO-SS =           0.0000     STORAGE         
                 WEL =       20000.0000                   WEL =         200.0000     WEL_0           
                 DRN =           0.0000                   DRN =           0.0000     DRN_0           
                 RCH =           0.0000                   RCH =           0.0000     RCHA_0          
                 CHD =       11433.8790                   CHD =         114.3388     CHD_0           

           TOTAL OUT =       31433.8790             TOTAL OUT =         314.3388

            IN - OUT =       3.6867E-05              IN - OUT =       2.9885E-07

 PERCENT DISCREPANCY =           0.00     PERCENT DISCREPANCY =           0.00




         TIME SUMMARY AT END OF TIME STEP    5 IN STRESS PERIOD    1
                    SECONDS     MINUTES      HOURS       DAYS        YEARS
                    -----------------------------------------------------------
   TIME STEP LENGTH 2.57020E+06  42837.      713.95      29.748     8.14449E-02
 STRESS PERIOD TIME 8.64000E+06 1.44000E+05  2400.0      100.00     0.27379    
         TOTAL TIME 8.64000E+06 1.44000E+05  2400.0      100.00     0.27379    


end timestep


start timestep kper="2" kstp="1" mode="normal"


 END OF FILE DETECTED IN OUTPUT CONTROL.
 CURRENT OUTPUT CONTROL SETTINGS WILL BE 
 REPEATED UNTIL THE END OF THE SIMULATION.

 OUTPUT CONTROL FOR STRESS PERIOD 2 IS REPEATED USING SETTINGS FROM A PREVIOUS STRESS PERIOD.


 STRESS PERIOD 2 IS STEADY-STATE


 REUSING WELS FROM LAST STRESS PERIOD

 REUSING DRNS FROM LAST STRESS PERIOD

 REUSING RCHS FROM LAST STRESS PERIOD

 REUSING CHDS FROM LAST STRESS PERIOD
 UBDSV1 SAVING           STO-SS ON UNIT   1016 AT TIME STEP      1, STRESS PERIOD      2
 UBDSV1 SAVING     FLOW-JA-FACE ON UNIT   1016 AT TIME STEP      1, STRESS PERIOD      2
 UBDSV06 SAVING       DATA-SPDIS IN MODEL TEST             PACKAGE NPF             CONNECTED TO MODEL TEST             PACKAGE NPF              ON UNIT   1016 AT TIME STEP      1, STRESS PERIOD      2
 UBDSV06 SAVING         DATA-SAT IN MODEL TEST             PACKAGE NPF             CONNECTED TO MODEL TEST             PACKAGE NPF              ON UNIT   1016 AT TIME STEP      1, STRESS PERIOD      2
 UBDSV06 SAVING              WEL IN MODEL TEST             PACKAGE TEST            CONNECTED TO MODEL TEST             PACKAGE WEL_0            ON UNIT   1016 AT TIME STEP      1, STRESS PERIOD      2
 UBDSV06 SAVING              DRN IN MODEL TEST             PACKAGE TEST            CONNECTED TO MODEL TEST             PACKAGE DRN_0            ON UNIT   1016 AT TIME STEP      1, STRESS PERIOD      2
 UBDSV06 SAVING              RCH IN MODEL TEST             PACKAGE TEST            CONNECTED TO MODEL TEST             PACKAGE RCHA_0           ON UNIT   1016 AT TIME STEP      1, STRESS PERIOD      2
 UBDSV06 SAVING              CHD IN MODEL TEST             PACKAGE TEST            CONNECTED TO MODEL TEST             PACKAGE CHD_0            ON UNIT   1016 AT TIME STEP      1, STRESS PERIOD      2

 HEAD WILL BE SAVED ON UNIT 1017 AT END OF TIME STEP    1, STRESS PERIOD    2

end timestep


start timestep kper="2" kstp="2" mode="normal"

 UBDSV1 SAVING           STO-SS ON UNIT   1016 AT TIME STEP      2, STRESS PERIOD      2
 UBDSV1 SAVING     FLOW-JA-FACE ON UNIT   1016 AT TIME STEP      2, STRESS PERIOD      2
 UBDSV06 SAVING       DATA-SPDIS IN MODEL TEST             PACKAGE NPF             CONNECTED TO MODEL TEST             PACKAGE NPF              ON UNIT   1016 AT TIME STEP      2, STRESS PERIOD      2
 UBDSV06 SAVING         DATA-SAT IN MODEL TEST             PACKAGE NPF             CONNECTED TO MODEL TEST             PACKAGE NPF              ON UNIT   1016 AT TIME STEP      2, STRESS PERIOD      2
 UBDSV06 SAVING              WEL IN MODEL TEST             PACKAGE TEST            CONNECTED TO MODEL TEST             PACKAGE WEL_0            ON UNIT   1016 AT TIME STEP      2, STRESS PERIOD      2
 UBDSV06 SAVING              DRN IN MODEL TEST             PACKAGE TEST            CONNECTED TO MODEL TEST             PACKAGE DRN_0            ON UNIT   1016 AT TIME STEP      2, STRESS PERIOD      2
 UBDSV06 SAVING              RCH IN MODEL TEST             PACKAGE TEST            CONNECTED TO MODEL TEST             PACKAGE RCHA_0           ON UNIT   1016 AT TIME STEP      2, STRESS PERIOD      2
 UBDSV06 SAVING              CHD IN MODEL TEST             PACKAGE TEST            CONNECTED TO MODEL TEST             PACKAGE CHD_0            ON UNIT   1016 AT TIME STEP      2, STRESS PERIOD      2

 HEAD WILL BE SAVED ON UNIT 1017 AT END OF TIME STEP    2, STRESS PERIOD    2

end timestep


start timestep kper="2" kstp="3" mode="normal"

 UBDSV1 SAVING           STO-SS ON UNIT   1016 AT TIME STEP      3, STRESS PERIOD      2
 UBDSV1 SAVING     FLOW-JA-FACE ON UNIT   1016 AT TIME STEP      3, STRESS PERIOD      2
 UBDSV06 SAVING       DATA-SPDIS IN MODEL TEST             PACKAGE NPF             CONNECTED TO MODEL TEST             PACKAGE NPF              ON UNIT   1016 AT TIME STEP      3, STRESS PERIOD      2
 UBDSV06 SAVING         DATA-SAT IN MODEL TEST             PACKAGE NPF             CONNECTED TO MODEL TEST             PACKAGE NPF              ON UNIT   1016 AT TIME STEP      3, STRESS PERIOD      2
 UBDSV06 SAVING              WEL IN MODEL TEST             PACKAGE TEST            CONNECTED TO MODEL TEST             PACKAGE WEL_0            ON UNIT   1016 AT TIME STEP      3, STRESS PERIOD      2
 UBDSV06 SAVING              DRN IN MODEL TEST             PACKAGE TEST            CONNECTED TO MODEL TEST             PACKAGE DRN_0            ON UNIT   1016 AT TIME STEP      3, STRESS PERIOD      2
 UBDSV06 SAVING              RCH IN MODEL TEST             PACKAGE TEST            CONNECTED TO MODEL TEST             PACKAGE RCHA_0           ON UNIT   1016 AT TIME STEP      3, STRESS PERIOD      2
 UBDSV06 SAVING              CHD IN MODEL TEST             PACKAGE TEST            CONNECTED TO MODEL TEST             PACKAGE CHD_0            ON UNIT   1016 AT TIME STEP      3, STRESS PERIOD      2

 HEAD WILL BE SAVED ON UNIT 1017 AT END OF TIME STEP    3, STRESS PERIOD    2

end timestep


start timestep kper="2" kstp="4" mode="normal"

 UBDSV1 SAVING           STO-SS ON UNIT   1016 AT TIME STEP      4, STRESS PERIOD      2
 UBDSV1 SAVING     FLOW-JA-FACE ON UNIT   1016 AT TIME STEP      4, STRESS PERIOD      2
 UBDSV06 SAVING       DATA-SPDIS IN MODEL TEST             PACKAGE NPF             CONNECTED TO MODEL TEST             PACKAGE NPF              ON UNIT   1016 AT TIME STEP      4, STRESS PERIOD      2
 UBDSV06 SAVING         DATA-SAT IN MODEL TEST             PACKAGE NPF             CONNECTED TO MODEL TEST             PACKAGE NPF              ON UNIT   1016 AT TIME STEP      4, STRESS PERIOD      2
 UBDSV06 SAVING              WEL IN MODEL TEST             PACKAGE TEST            CONNECTED TO MODEL TEST             PACKAGE WEL_0            ON UNIT   1016 AT TIME STEP      4, STRESS PERIOD      2
 UBDSV06 SAVING              DRN IN MODEL TEST             PACKAGE TEST            CONNECTED TO MODEL TEST             PACKAGE DRN_0            ON UNIT   1016 AT TIME STEP      4, STRESS PERIOD      2
 UBDSV06 SAVING              RCH IN MODEL TEST             PACKAGE TEST            CONNECTED TO MODEL TEST             PACKAGE RCHA_0           ON UNIT   1016 AT TIME STEP      4, STRESS PERIOD      2
 UBDSV06 SAVING              CHD IN MODEL TEST             PACKAGE TEST            CONNECTED TO MODEL TEST             PACKAGE CHD_0            ON UNIT   1016 AT TIME STEP      4, STRESS PERIOD      2

 HEAD WILL BE SAVED ON UNIT 1017 AT END OF TIME STEP    4, STRESS PERIOD    2

end timestep


start timestep kper="2" kstp="5" mode="normal"

 UBDSV1 SAVING           STO-SS ON UNIT   1016 AT TIME STEP      5, STRESS PERIOD      2
 UBDSV1 SAVING     FLOW-JA-FACE ON UNIT   1016 AT TIME STEP      5, STRESS PERIOD      2
 UBDSV06 SAVING       DATA-SPDIS IN MODEL TEST             PACKAGE NPF             CONNECTED TO MODEL TEST             PACKAGE NPF              ON UNIT   1016 AT TIME STEP      5, STRESS PERIOD      2
 UBDSV06 SAVING         DATA-SAT IN MODEL TEST             PACKAGE NPF             CONNECTED TO MODEL TEST             PACKAGE NPF              ON UNIT   1016 AT TIME STEP      5, STRESS PERIOD      2
 UBDSV06 SAVING              WEL IN MODEL TEST             PACKAGE TEST            CONNECTED TO MODEL TEST             PACKAGE WEL_0            ON UNIT   1016 AT TIME STEP      5, STRESS PERIOD      2
 UBDSV06 SAVING              DRN IN MODEL TEST             PACKAGE TEST            CONNECTED TO MODEL TEST             PACKAGE DRN_0            ON UNIT   1016 AT TIME STEP      5, STRESS PERIOD      2
 UBDSV06 SAVING              RCH IN MODEL TEST             PACKAGE TEST            CONNECTED TO MODEL TEST             PACKAGE RCHA_0           ON UNIT   1016 AT TIME STEP      5, STRESS PERIOD      2
 UBDSV06 SAVING              CHD IN MODEL TEST             PACKAGE TEST            CONNECTED TO MODEL TEST             PACKAGE CHD_0            ON UNIT   1016 AT TIME STEP      5, STRESS PERIOD      2

 HEAD WILL BE SAVED ON UNIT 1017 AT END OF TIME STEP    5, STRESS PERIOD    2


  VOLUME BUDGET FOR ENTIRE MODEL AT END OF TIME STEP    5, STRESS PERIOD   2
  ---------------------------------------------------------------------------------------------------

     CUMULATIVE VOLUME      L**3       RATES FOR THIS TIME STEP      L**3/T          PACKAGE NAME    
     ------------------                 ------------------------                     ----------------

           IN:                                      IN:
           ---                                      ---
              STO-SS =           0.0000                STO-SS =           0.0000     STORAGE         
                 WEL =           0.0000                   WEL =           0.0000     WEL_0           
                 DRN =           0.0000                   DRN =           0.0000     DRN_0           
                 RCH =       62380.8094                   RCH =         311.9040     RCHA_0          
                 CHD =         486.9487                   CHD =           2.4347     CHD_0           

            TOTAL IN =       62867.7581              TOTAL IN =         314.3388

          OUT:                                     OUT:
          ----                                     ----
              STO-SS =           0.0000                STO-SS =           0.0000     STORAGE         
                 WEL =       40000.0000                   WEL =         200.0000     WEL_0           
                 DRN =           0.0000                   DRN =           0.0000     DRN_0           
                 RCH =           0.0000                   RCH =           0.0000     RCHA_0          
                 CHD =       22867.7580                   CHD =         114.3388     CHD_0           

           TOTAL OUT =       62867.7580             TOTAL OUT =         314.3388

            IN - OUT =       5.6312E-05              IN - OUT =       1.5710E-07

 PERCENT DISCREPANCY =           0.00     PERCENT DISCREPANCY =           0.00




         TIME SUMMARY AT END OF TIME STEP    5 IN STRESS PERIOD    2
                    SECONDS     MINUTES      HOURS       DAYS        YEARS
                    -----------------------------------------------------------
   TIME STEP LENGTH 2.57020E+06  42837.      713.95      29.748     8.14449E-02
 STRESS PERIOD TIME 8.64000E+06 1.44000E+05  2400.0      100.00     0.27379    
         TOTAL TIME 1.72800E+07 2.88000E+05  4800.0      200.00     0.54757    


end timestep


start timestep kper="3" kstp="1" mode="normal"


 OUTPUT CONTROL FOR STRESS PERIOD 3 IS REPEATED USING SETTINGS FROM A PREVIOUS STRESS PERIOD.


 STRESS PERIOD 3 IS STEADY-STATE


 REUSING WELS FROM LAST STRESS PERIOD

 REUSING DRNS FROM LAST STRESS PERIOD

 REUSING RCHS FROM LAST STRESS PERIOD

 REUSING CHDS FROM LAST STRESS PERIOD
 UBDSV1 SAVING           STO-SS ON UNIT   1016 AT TIME STEP      1, STRESS PERIOD      3
 UBDSV1 SAVING     FLOW-JA-FACE ON UNIT   1016 AT TIME STEP      1, STRESS PERIOD      3
 UBDSV06 SAVING       DATA-SPDIS IN MODEL TEST             PACKAGE NPF             CONNECTED TO MODEL TEST             PACKAGE NPF              ON UNIT   1016 AT TIME STEP      1, STRESS PERIOD      3
 UBDSV06 SAVING         DATA-SAT IN MODEL TEST             PACKAGE NPF             CONNECTED TO MODEL TEST             PACKAGE NPF              ON UNIT   1016 AT TIME STEP      1, STRESS PERIOD      3
 UBDSV06 SAVING              WEL IN MODEL TEST             PACKAGE TEST            CONNECTED TO MODEL TEST             PACKAGE WEL_0            ON UNIT   1016 AT TIME STEP      1, STRESS PERIOD      3
 UBDSV06 SAVING              DRN IN MODEL TEST             PACKAGE TEST            CONNECTED TO MODEL TEST             PACKAGE DRN_0            ON UNIT   1016 AT TIME STEP      1, STRESS PERIOD      3
 UBDSV06 SAVING              RCH IN MODEL TEST             PACKAGE TEST            CONNECTED TO MODEL TEST             PACKAGE RCHA_0           ON UNIT   1016 AT TIME STEP      1, STRESS PERIOD      3
 UBDSV06 SAVING              CHD IN MODEL TEST             PACKAGE TEST            CONNECTED TO MODEL TEST             PACKAGE CHD_0            ON UNIT   1016 AT TIME STEP      1, STRESS PERIOD      3

 HEAD WILL BE SAVED ON UNIT 1017 AT END OF TIME STEP    1, STRESS PERIOD    3

end timestep


start timestep kper="3" kstp="2" mode="normal"

 UBDSV1 SAVING           STO-SS ON UNIT   1016 AT TIME STEP      2, STRESS PERIOD      3
 UBDSV1 SAVING     FLOW-JA-FACE ON UNIT   1016 AT TIME STEP      2, STRESS PERIOD      3
 UBDSV06 SAVING       DATA-SPDIS IN MODEL TEST             PACKAGE NPF             CONNECTED TO MODEL TEST             PACKAGE NPF              ON UNIT   1016 AT TIME STEP      2, STRESS PERIOD      3
 UBDSV06 SAVING         DATA-SAT IN MODEL TEST             PACKAGE NPF             CONNECTED TO MODEL TEST             PACKAGE NPF              ON UNIT   1016 AT TIME STEP      2, STRESS PERIOD      3
 UBDSV06 SAVING              WEL IN MODEL TEST             PACKAGE TEST            CONNECTED TO MODEL TEST             PACKAGE WEL_0            ON UNIT   1016 AT TIME STEP      2, STRESS PERIOD      3
 UBDSV06 SAVING              DRN IN MODEL TEST             PACKAGE TEST            CONNECTED TO MODEL TEST             PACKAGE DRN_0            ON UNIT   1016 AT TIME STEP      2, STRESS PERIOD      3
 UBDSV06 SAVING              RCH IN MODEL TEST             PACKAGE TEST            CONNECTED TO MODEL TEST             PACKAGE RCHA_0           ON UNIT   1016 AT TIME STEP      2, STRESS PERIOD      3
 UBDSV06 SAVING              CHD IN MODEL TEST             PACKAGE TEST            CONNECTED TO MODEL TEST             PACKAGE CHD_0            ON UNIT   1016 AT TIME STEP      2, STRESS PERIOD      3

 HEAD WILL BE SAVED ON UNIT 1017 AT END OF TIME STEP    2, STRESS PERIOD    3

end timestep


start timestep kper="3" kstp="3" mode="normal"

 UBDSV1 SAVING           STO-SS ON UNIT   1016 AT TIME STEP      3, STRESS PERIOD      3
 UBDSV1 SAVING     FLOW-JA-FACE ON UNIT   1016 AT TIME STEP      3, STRESS PERIOD      3
 UBDSV06 SAVING       DATA-SPDIS IN MODEL TEST             PACKAGE NPF             CONNECTED TO MODEL TEST             PACKAGE NPF              ON UNIT   1016 AT TIME STEP      3, STRESS PERIOD      3
 UBDSV06 SAVING         DATA-SAT IN MODEL TEST             PACKAGE NPF             CONNECTED TO MODEL TEST             PACKAGE NPF              ON UNIT   1016 AT TIME STEP      3, STRESS PERIOD      3
 UBDSV06 SAVING              WEL IN MODEL TEST             PACKAGE TEST            CONNECTED TO MODEL TEST             PACKAGE WEL_0            ON UNIT   1016 AT TIME STEP      3, STRESS PERIOD      3
 UBDSV06 SAVING              DRN IN MODEL TEST             PACKAGE TEST            CONNECTED TO MODEL TEST             PACKAGE DRN_0            ON UNIT   1016 AT TIME STEP      3, STRESS PERIOD      3
 UBDSV06 SAVING              RCH IN MODEL TEST             PACKAGE TEST            CONNECTED TO MODEL TEST             PACKAGE RCHA_0           ON UNIT   1016 AT TIME STEP      3, STRESS PERIOD      3
 UBDSV06 SAVING              CHD IN MODEL TEST             PACKAGE TEST            CONNECTED TO MODEL TEST             PACKAGE CHD_0            ON UNIT   1016 AT TIME STEP      3, STRESS PERIOD      3

 HEAD WILL BE SAVED ON UNIT 1017 AT END OF TIME STEP    3, STRESS PERIOD    3

end timestep


start timestep kper="3" kstp="4" mode="normal"

 UBDSV1 SAVING           STO-SS ON UNIT   1016 AT TIME STEP      4, STRESS PERIOD      3
 UBDSV1 SAVING     FLOW-JA-FACE ON UNIT   1016 AT TIME STEP      4, STRESS PERIOD      3
 UBDSV06 SAVING       DATA-SPDIS IN MODEL TEST             PACKAGE NPF             CONNECTED TO MODEL TEST             PACKAGE NPF              ON UNIT   1016 AT TIME STEP      4, STRESS PERIOD      3
 UBDSV06 SAVING         DATA-SAT IN MODEL TEST             PACKAGE NPF             CONNECTED TO MODEL TEST             PACKAGE NPF              ON UNIT   1016 AT TIME STEP      4, STRESS PERIOD      3
 UBDSV06 SAVING              WEL IN MODEL TEST             PACKAGE TEST            CONNECTED TO MODEL TEST             PACKAGE WEL_0            ON UNIT   1016 AT TIME STEP      4, STRESS PERIOD      3
 UBDSV06 SAVING              DRN IN MODEL TEST             PACKAGE TEST            CONNECTED TO MODEL TEST             PACKAGE DRN_0            ON UNIT   1016 AT TIME STEP      4, STRESS PERIOD      3
 UBDSV06 SAVING              RCH IN MODEL TEST             PACKAGE TEST            CONNECTED TO MODEL TEST             PACKAGE RCHA_0           ON UNIT   1016 AT TIME STEP      4, STRESS PERIOD      3
 UBDSV06 SAVING              CHD IN MODEL TEST             PACKAGE TEST            CONNECTED TO MODEL TEST             PACKAGE CHD_0            ON UNIT   1016 AT TIME STEP      4, STRESS PERIOD      3

 HEAD WILL BE SAVED ON UNIT 1017 AT END OF TIME STEP    4, STRESS PERIOD    3

end timestep


start timestep kper="3" kstp="5" mode="normal"

 UBDSV1 SAVING           STO-SS ON UNIT   1016 AT TIME STEP      5, STRESS PERIOD      3
 UBDSV1 SAVING     FLOW-JA-FACE ON UNIT   1016 AT TIME STEP      5, STRESS PERIOD      3
 UBDSV06 SAVING       DATA-SPDIS IN MODEL TEST             PACKAGE NPF             CONNECTED TO MODEL TEST             PACKAGE NPF              ON UNIT   1016 AT TIME STEP      5, STRESS PERIOD      3
 UBDSV06 SAVING         DATA-SAT IN MODEL TEST             PACKAGE NPF             CONNECTED TO MODEL TEST             PACKAGE NPF              ON UNIT   1016 AT TIME STEP      5, STRESS PERIOD      3
 UBDSV06 SAVING              WEL IN MODEL TEST             PACKAGE TEST            CONNECTED TO MODEL TEST             PACKAGE WEL_0            ON UNIT   1016 AT TIME STEP      5, STRESS PERIOD      3
 UBDSV06 SAVING              DRN IN MODEL TEST             PACKAGE TEST            CONNECTED TO MODEL TEST             PACKAGE DRN_0            ON UNIT   1016 AT TIME STEP      5, STRESS PERIOD      3
 UBDSV06 SAVING              RCH IN MODEL TEST             PACKAGE TEST            CONNECTED TO MODEL TEST             PACKAGE RCHA_0           ON UNIT   1016 AT TIME STEP      5, STRESS PERIOD      3
 UBDSV06 SAVING              CHD IN MODEL TEST             PACKAGE TEST            CONNECTED TO MODEL TEST             PACKAGE CHD_0            ON UNIT   1016 AT TIME STEP      5, STRESS PERIOD      3

 HEAD WILL BE SAVED ON UNIT 1017 AT END OF TIME STEP    5, STRESS PERIOD    3


  VOLUME BUDGET FOR ENTIRE MODEL AT END OF TIME STEP    5, STRESS PERIOD   3
  ---------------------------------------------------------------------------------------------------

     CUMULATIVE VOLUME      L**3       RATES FOR THIS TIME STEP      L**3/T          PACKAGE NAME    
     ------------------                 ------------------------                     ----------------

           IN:                                      IN:
           ---                                      ---
              STO-SS =           0.0000                STO-SS =           0.0000     STORAGE         
                 WEL =           0.0000                   WEL =           0.0000     WEL_0           
                 DRN =           0.0000                   DRN =           0.0000     DRN_0           
                 RCH =       93571.2142                   RCH =         311.9040     RCHA_0          
                 CHD =         730.4230                   CHD =           2.4347     CHD_0           

            TOTAL IN =       94301.6372              TOTAL IN =         314.3388

          OUT:                                     OUT:
          ----                                     ----
              STO-SS =           0.0000                STO-SS =           0.0000     STORAGE         
                 WEL =       60000.0000                   WEL =         200.0000     WEL_0           
                 DRN =           0.0000                   DRN =           0.0000     DRN_0           
                 RCH =           0.0000                   RCH =           0.0000     RCHA_0          
                 CHD =       34301.6371                   CHD =         114.3388     CHD_0           

           TOTAL OUT =       94301.6371             TOTAL OUT =         314.3388

            IN - OUT =       6.7037E-05              IN - OUT =       8.9356E-08

 PERCENT DISCREPANCY =           0.00     PERCENT DISCREPANCY =           0.00




         TIME SUMMARY AT END OF TIME STEP    5 IN STRESS PERIOD    3
                    SECONDS     MINUTES      HOURS       DAYS        YEARS
                    -----------------------------------------------------------
   TIME STEP LENGTH 2.57020E+06  42837.      713.95      29.748     8.14449E-02
 STRESS PERIOD TIME 8.64000E+06 1.44000E+05  2400.0      100.00     0.27379    
         TOTAL TIME 2.59200E+07 4.32000E+05  7200.0      300.00     0.82136    


end timestep

